WIN_all_conformer
  PyMOL2.3          3D                             0

 58 63  0  0  0  0  0  0  0  0999 V2000
   24.5200   23.2100   10.6800 C   0  0  0  0  0  0  0  0  0  0  0  0
   24.4800   24.0500   13.1100 N   0  0  0  0  0  0  0  0  0  0  0  0
   25.8300   27.4000   10.1400 O   0  0  0  0  0  0  0  0  0  0  0  0
   24.6900   24.2300   11.7600 C   0  0  0  0  0  0  0  0  0  0  0  0
   22.0700   21.5200   14.5700 N   0  0  0  0  0  0  0  0  0  0  0  0
   24.7800   24.1200   16.0400 O   0  0  0  0  0  0  0  0  0  0  0  0
   25.1300   25.5800   11.5600 C   0  0  0  0  0  0  0  0  0  0  0  0
   20.2700   19.3100   14.7000 O   0  0  0  0  0  0  0  0  0  0  0  0
   25.4200   26.2200   10.2200 C   0  0  0  0  0  0  0  0  0  0  0  0
   25.4800   25.5200    8.9000 C   0  0  0  0  0  0  0  0  0  0  0  0
   24.2600   25.3500    8.0700 C   0  0  0  0  0  0  0  0  0  0  0  0
   23.1000   26.1000    8.2800 C   0  0  0  0  0  0  0  0  0  0  0  0
   21.9600   25.9200    7.4700 C   0  0  0  0  0  0  0  0  0  0  0  0
   21.9900   25.1200    6.3700 C   0  0  0  0  0  0  0  0  0  0  0  0
   23.1600   24.4400    6.1400 C   0  0  0  0  0  0  0  0  0  0  0  0
   24.3100   24.4900    6.9500 C   0  0  0  0  0  0  0  0  0  0  0  0
   25.4900   23.7800    6.6700 C   0  0  0  0  0  0  0  0  0  0  0  0
   26.7000   24.1100    7.3500 C   0  0  0  0  0  0  0  0  0  0  0  0
   26.6200   24.8500    8.5500 C   0  0  0  0  0  0  0  0  0  0  0  0
   25.3600   26.1200   12.9500 C   0  0  0  0  0  0  0  0  0  0  0  0
   24.9800   25.1000   13.8200 C   0  0  0  0  0  0  0  0  0  0  0  0
   24.1200   22.7500   13.8200 C   0  0  0  0  0  0  0  0  0  0  0  0
   24.7800   22.8500   15.2400 C   0  0  0  0  0  0  0  0  0  0  0  0
   25.1300   25.2000   15.2200 C   0  0  0  0  0  0  0  0  0  0  0  0
   25.7900   26.3600   15.7100 C   0  0  0  0  0  0  0  0  0  0  0  0
   26.0300   27.4800   14.8300 C   0  0  0  0  0  0  0  0  0  0  0  0
   25.8600   27.3500   13.4700 C   0  0  0  0  0  0  0  0  0  0  0  0
   22.6300   22.8300   14.0100 C   0  0  0  0  0  0  0  0  0  0  0  0
   20.5600   21.6400   14.8100 C   0  0  0  0  0  0  0  0  0  0  0  0
   20.0500   20.4400   15.5500 C   0  0  0  0  0  0  0  0  0  0  0  0
   21.6500   19.0400   14.3400 C   0  0  0  0  0  0  0  0  0  0  0  0
   22.2200   20.3400   13.6600 C   0  0  0  0  0  0  0  0  0  0  0  0
   23.8300   23.6900    9.9800 H   0  0  0  0  0  0  0  0  0  0  0  0
   24.0200   22.3400   11.1100 H   0  0  0  0  0  0  0  0  0  0  0  0
   25.4200   22.9100   10.1400 H   0  0  0  0  0  0  0  0  0  0  0  0
   23.1300   26.8500    9.0500 H   0  0  0  0  0  0  0  0  0  0  0  0
   21.1000   26.5700    7.6400 H   0  0  0  0  0  0  0  0  0  0  0  0
   21.0700   25.0000    5.8000 H   0  0  0  0  0  0  0  0  0  0  0  0
   23.2200   23.8800    5.2100 H   0  0  0  0  0  0  0  0  0  0  0  0
   25.4400   23.1200    5.8100 H   0  0  0  0  0  0  0  0  0  0  0  0
   27.6400   23.6100    7.1000 H   0  0  0  0  0  0  0  0  0  0  0  0
   27.5200   24.8800    9.1600 H   0  0  0  0  0  0  0  0  0  0  0  0
   24.4000   21.9000   13.1900 H   0  0  0  0  0  0  0  0  0  0  0  0
   25.8200   22.5100   15.1800 H   0  0  0  0  0  0  0  0  0  0  0  0
   24.3100   22.0900   15.8800 H   0  0  0  0  0  0  0  0  0  0  0  0
   25.9900   26.4500   16.7700 H   0  0  0  0  0  0  0  0  0  0  0  0
   26.4200   28.4100   15.2100 H   0  0  0  0  0  0  0  0  0  0  0  0
   26.0800   28.1100   12.7400 H   0  0  0  0  0  0  0  0  0  0  0  0
   22.4400   23.7100   14.6300 H   0  0  0  0  0  0  0  0  0  0  0  0
   22.1800   22.8900   13.0100 H   0  0  0  0  0  0  0  0  0  0  0  0
   20.1200   21.9600   13.8600 H   0  0  0  0  0  0  0  0  0  0  0  0
   20.4600   22.4500   15.5300 H   0  0  0  0  0  0  0  0  0  0  0  0
   20.6600   20.2700   16.4300 H   0  0  0  0  0  0  0  0  0  0  0  0
   18.9900   20.5500   15.7600 H   0  0  0  0  0  0  0  0  0  0  0  0
   22.2300   18.7000   15.2000 H   0  0  0  0  0  0  0  0  0  0  0  0
   21.6400   18.2200   13.6300 H   0  0  0  0  0  0  0  0  0  0  0  0
   21.6600   20.5000   12.7400 H   0  0  0  0  0  0  0  0  0  0  0  0
   23.2600   20.0800   13.3900 H   0  0  0  0  0  0  0  0  0  0  0  0
  1  4  1  0  0  0  0
  1 33  1  0  0  0  0
  1 34  1  0  0  0  0
  1 35  1  0  0  0  0
  2  4  1  0  0  0  0
  2 21  1  0  0  0  0
  2 22  1  0  0  0  0
  3  9  1  0  0  0  0
  4  7  1  0  0  0  0
  5 28  1  0  0  0  0
  5 29  1  0  0  0  0
  5 32  1  0  0  0  0
  6 23  1  0  0  0  0
  6 24  1  0  0  0  0
  7  9  1  0  0  0  0
  7 20  1  0  0  0  0
  8 30  1  0  0  0  0
  8 31  1  0  0  0  0
  9 10  1  0  0  0  0
 10 11  1  0  0  0  0
 10 19  1  0  0  0  0
 11 12  1  0  0  0  0
 11 16  1  0  0  0  0
 12 13  1  0  0  0  0
 12 36  1  0  0  0  0
 13 14  1  0  0  0  0
 13 37  1  0  0  0  0
 14 15  1  0  0  0  0
 14 38  1  0  0  0  0
 15 16  1  0  0  0  0
 15 39  1  0  0  0  0
 16 17  1  0  0  0  0
 17 18  1  0  0  0  0
 17 40  1  0  0  0  0
 18 19  1  0  0  0  0
 18 41  1  0  0  0  0
 19 42  1  0  0  0  0
 20 21  1  0  0  0  0
 20 27  1  0  0  0  0
 21 24  1  0  0  0  0
 22 23  1  0  0  0  0
 22 28  1  0  0  0  0
 22 43  1  0  0  0  0
 23 44  1  0  0  0  0
 23 45  1  0  0  0  0
 24 25  1  0  0  0  0
 25 26  1  0  0  0  0
 25 46  1  0  0  0  0
 26 27  1  0  0  0  0
 26 47  1  0  0  0  0
 27 48  1  0  0  0  0
 28 49  1  0  0  0  0
 28 50  1  0  0  0  0
 29 30  1  0  0  0  0
 29 51  1  0  0  0  0
 29 52  1  0  0  0  0
 30 53  1  0  0  0  0
 30 54  1  0  0  0  0
 31 32  1  0  0  0  0
 31 55  1  0  0  0  0
 31 56  1  0  0  0  0
 32 57  1  0  0  0  0
 32 58  1  0  0  0  0
M  END
$$$$
WIN_all_conformer
  PyMOL2.3          3D                             0

 58 63  0  0  0  0  0  0  0  0999 V2000
   22.3400   22.2100   11.3200 C   0  0  0  0  0  0  0  0  0  0  0  0
   23.9000   22.7600   13.3400 N   0  0  0  0  0  0  0  0  0  0  0  0
   22.8500   26.4000   10.9500 O   0  0  0  0  0  0  0  0  0  0  0  0
   23.2800   23.0700   12.1000 C   0  0  0  0  0  0  0  0  0  0  0  0
   21.5500   21.4400   14.7600 N   0  0  0  0  0  0  0  0  0  0  0  0
   25.6600   22.6700   15.5400 O   0  0  0  0  0  0  0  0  0  0  0  0
   23.5600   24.4100   11.8700 C   0  0  0  0  0  0  0  0  0  0  0  0
   18.6200   21.2200   14.3900 O   0  0  0  0  0  0  0  0  0  0  0  0
   23.2000   25.2400   10.7800 C   0  0  0  0  0  0  0  0  0  0  0  0
   23.2400   24.7000    9.4000 C   0  0  0  0  0  0  0  0  0  0  0  0
   24.4200   24.3800    8.7200 C   0  0  0  0  0  0  0  0  0  0  0  0
   25.6700   24.6900    9.2500 C   0  0  0  0  0  0  0  0  0  0  0  0
   26.8300   24.5600    8.4700 C   0  0  0  0  0  0  0  0  0  0  0  0
   26.7800   24.0000    7.1400 C   0  0  0  0  0  0  0  0  0  0  0  0
   25.5400   23.7000    6.6400 C   0  0  0  0  0  0  0  0  0  0  0  0
   24.3800   23.9700    7.3900 C   0  0  0  0  0  0  0  0  0  0  0  0
   23.1200   23.7900    6.8000 C   0  0  0  0  0  0  0  0  0  0  0  0
   21.9700   23.9700    7.4800 C   0  0  0  0  0  0  0  0  0  0  0  0
   21.9900   24.4800    8.8100 C   0  0  0  0  0  0  0  0  0  0  0  0
   24.3200   24.9200   13.0100 C   0  0  0  0  0  0  0  0  0  0  0  0
   24.5500   23.8400   13.8000 C   0  0  0  0  0  0  0  0  0  0  0  0
   23.8800   21.5100   14.1900 C   0  0  0  0  0  0  0  0  0  0  0  0
   25.2600   21.4400   14.8400 C   0  0  0  0  0  0  0  0  0  0  0  0
   25.3400   23.8700   14.9300 C   0  0  0  0  0  0  0  0  0  0  0  0
   25.7400   25.1300   15.3700 C   0  0  0  0  0  0  0  0  0  0  0  0
   25.3900   26.2500   14.6600 C   0  0  0  0  0  0  0  0  0  0  0  0
   24.7000   26.1700   13.4600 C   0  0  0  0  0  0  0  0  0  0  0  0
   22.8800   21.4700   15.3900 C   0  0  0  0  0  0  0  0  0  0  0  0
   20.8700   20.1200   15.0200 C   0  0  0  0  0  0  0  0  0  0  0  0
   19.5700   20.0800   14.1600 C   0  0  0  0  0  0  0  0  0  0  0  0
   19.3600   22.4500   14.3300 C   0  0  0  0  0  0  0  0  0  0  0  0
   20.6700   22.6400   15.0700 C   0  0  0  0  0  0  0  0  0  0  0  0
   21.8600   21.4300   11.9300 H   0  0  0  0  0  0  0  0  0  0  0  0
   22.7600   21.6900   10.4500 H   0  0  0  0  0  0  0  0  0  0  0  0
   21.5500   22.8100   10.8600 H   0  0  0  0  0  0  0  0  0  0  0  0
   25.7800   24.9100   10.3000 H   0  0  0  0  0  0  0  0  0  0  0  0
   27.8100   24.6800    8.9300 H   0  0  0  0  0  0  0  0  0  0  0  0
   27.6800   23.8100    6.5700 H   0  0  0  0  0  0  0  0  0  0  0  0
   25.4500   23.2400    5.6600 H   0  0  0  0  0  0  0  0  0  0  0  0
   22.9900   23.4900    5.7600 H   0  0  0  0  0  0  0  0  0  0  0  0
   21.0000   23.7800    7.0300 H   0  0  0  0  0  0  0  0  0  0  0  0
   21.0800   24.5900    9.3900 H   0  0  0  0  0  0  0  0  0  0  0  0
   23.8700   20.6100   13.5700 H   0  0  0  0  0  0  0  0  0  0  0  0
   25.8900   21.2300   13.9700 H   0  0  0  0  0  0  0  0  0  0  0  0
   25.3500   20.6400   15.5900 H   0  0  0  0  0  0  0  0  0  0  0  0
   26.4000   25.2500   16.2300 H   0  0  0  0  0  0  0  0  0  0  0  0
   25.6200   27.2700   14.9900 H   0  0  0  0  0  0  0  0  0  0  0  0
   24.4600   27.0700   12.8900 H   0  0  0  0  0  0  0  0  0  0  0  0
   22.9900   20.6100   16.0700 H   0  0  0  0  0  0  0  0  0  0  0  0
   22.9800   22.3000   16.1000 H   0  0  0  0  0  0  0  0  0  0  0  0
   20.6200   19.9900   16.0800 H   0  0  0  0  0  0  0  0  0  0  0  0
   21.5500   19.2900   14.8200 H   0  0  0  0  0  0  0  0  0  0  0  0
   19.7900   19.9900   13.0900 H   0  0  0  0  0  0  0  0  0  0  0  0
   19.1200   19.1600   14.5200 H   0  0  0  0  0  0  0  0  0  0  0  0
   19.4700   22.7600   13.2800 H   0  0  0  0  0  0  0  0  0  0  0  0
   18.6800   23.2200   14.7300 H   0  0  0  0  0  0  0  0  0  0  0  0
   20.5500   22.7200   16.1600 H   0  0  0  0  0  0  0  0  0  0  0  0
   21.0900   23.6000   14.7600 H   0  0  0  0  0  0  0  0  0  0  0  0
  1  4  1  0  0  0  0
  1 33  1  0  0  0  0
  1 34  1  0  0  0  0
  1 35  1  0  0  0  0
  2  4  1  0  0  0  0
  2 21  1  0  0  0  0
  2 22  1  0  0  0  0
  3  9  1  0  0  0  0
  4  7  1  0  0  0  0
  5 28  1  0  0  0  0
  5 29  1  0  0  0  0
  5 32  1  0  0  0  0
  6 23  1  0  0  0  0
  6 24  1  0  0  0  0
  7  9  1  0  0  0  0
  7 20  1  0  0  0  0
  8 30  1  0  0  0  0
  8 31  1  0  0  0  0
  9 10  1  0  0  0  0
 10 11  1  0  0  0  0
 10 19  1  0  0  0  0
 11 12  1  0  0  0  0
 11 16  1  0  0  0  0
 12 13  1  0  0  0  0
 12 36  1  0  0  0  0
 13 14  1  0  0  0  0
 13 37  1  0  0  0  0
 14 15  1  0  0  0  0
 14 38  1  0  0  0  0
 15 16  1  0  0  0  0
 15 39  1  0  0  0  0
 16 17  1  0  0  0  0
 17 18  1  0  0  0  0
 17 40  1  0  0  0  0
 18 19  1  0  0  0  0
 18 41  1  0  0  0  0
 19 42  1  0  0  0  0
 20 21  1  0  0  0  0
 20 27  1  0  0  0  0
 21 24  1  0  0  0  0
 22 23  1  0  0  0  0
 22 28  1  0  0  0  0
 22 43  1  0  0  0  0
 23 44  1  0  0  0  0
 23 45  1  0  0  0  0
 24 25  1  0  0  0  0
 25 26  1  0  0  0  0
 25 46  1  0  0  0  0
 26 27  1  0  0  0  0
 26 47  1  0  0  0  0
 27 48  1  0  0  0  0
 28 49  1  0  0  0  0
 28 50  1  0  0  0  0
 29 30  1  0  0  0  0
 29 51  1  0  0  0  0
 29 52  1  0  0  0  0
 30 53  1  0  0  0  0
 30 54  1  0  0  0  0
 31 32  1  0  0  0  0
 31 55  1  0  0  0  0
 31 56  1  0  0  0  0
 32 57  1  0  0  0  0
 32 58  1  0  0  0  0
M  END
$$$$
WIN_all_conformer
  PyMOL2.3          3D                             0

 58 63  0  0  0  0  0  0  0  0999 V2000
   22.0900   23.4700   10.8500 C   0  0  0  0  0  0  0  0  0  0  0  0
   23.7500   23.4000   12.8500 N   0  0  0  0  0  0  0  0  0  0  0  0
   23.2600   27.2800   10.7800 O   0  0  0  0  0  0  0  0  0  0  0  0
   23.1600   23.9800   11.7000 C   0  0  0  0  0  0  0  0  0  0  0  0
   21.6200   21.5400   15.2400 N   0  0  0  0  0  0  0  0  0  0  0  0
   25.1500   22.8700   15.2600 O   0  0  0  0  0  0  0  0  0  0  0  0
   23.8100   25.1200   11.4300 C   0  0  0  0  0  0  0  0  0  0  0  0
   18.8600   21.4500   15.1600 O   0  0  0  0  0  0  0  0  0  0  0  0
   23.5900   26.1300   10.4300 C   0  0  0  0  0  0  0  0  0  0  0  0
   23.7500   25.8900    8.9400 C   0  0  0  0  0  0  0  0  0  0  0  0
   24.7600   25.1500    8.3600 C   0  0  0  0  0  0  0  0  0  0  0  0
   25.9600   24.6800    9.0500 C   0  0  0  0  0  0  0  0  0  0  0  0
   27.0500   24.0800    8.3300 C   0  0  0  0  0  0  0  0  0  0  0  0
   26.9800   23.9700    6.9600 C   0  0  0  0  0  0  0  0  0  0  0  0
   25.8000   24.3300    6.3100 C   0  0  0  0  0  0  0  0  0  0  0  0
   24.7200   24.9500    6.9700 C   0  0  0  0  0  0  0  0  0  0  0  0
   23.6800   25.3800    6.1700 C   0  0  0  0  0  0  0  0  0  0  0  0
   22.7300   26.1800    6.7500 C   0  0  0  0  0  0  0  0  0  0  0  0
   22.7600   26.4500    8.1100 C   0  0  0  0  0  0  0  0  0  0  0  0
   24.8000   25.3800   12.5100 C   0  0  0  0  0  0  0  0  0  0  0  0
   24.6700   24.2700   13.3300 C   0  0  0  0  0  0  0  0  0  0  0  0
   23.4200   22.2500   13.5800 C   0  0  0  0  0  0  0  0  0  0  0  0
   24.6100   21.8100   14.5000 C   0  0  0  0  0  0  0  0  0  0  0  0
   25.4000   24.0500   14.4900 C   0  0  0  0  0  0  0  0  0  0  0  0
   26.4000   24.9400   14.8400 C   0  0  0  0  0  0  0  0  0  0  0  0
   26.5500   26.1300   14.0700 C   0  0  0  0  0  0  0  0  0  0  0  0
   25.7100   26.3600   12.9400 C   0  0  0  0  0  0  0  0  0  0  0  0
   22.1900   22.6800   14.4500 C   0  0  0  0  0  0  0  0  0  0  0  0
   20.8200   21.9200   16.4000 C   0  0  0  0  0  0  0  0  0  0  0  0
   19.5000   22.4900   15.9200 C   0  0  0  0  0  0  0  0  0  0  0  0
   19.5700   21.0000   13.9800 C   0  0  0  0  0  0  0  0  0  0  0  0
   20.9200   20.4900   14.4300 C   0  0  0  0  0  0  0  0  0  0  0  0
   21.1600   23.8100   11.3400 H   0  0  0  0  0  0  0  0  0  0  0  0
   22.1700   22.3900   10.9200 H   0  0  0  0  0  0  0  0  0  0  0  0
   22.2000   23.7400    9.8000 H   0  0  0  0  0  0  0  0  0  0  0  0
   25.9900   24.5900   10.1300 H   0  0  0  0  0  0  0  0  0  0  0  0
   27.9700   23.9800    8.8900 H   0  0  0  0  0  0  0  0  0  0  0  0
   27.8300   23.5600    6.4200 H   0  0  0  0  0  0  0  0  0  0  0  0
   25.8900   24.2700    5.2300 H   0  0  0  0  0  0  0  0  0  0  0  0
   23.6800   25.2200    5.1000 H   0  0  0  0  0  0  0  0  0  0  0  0
   21.9000   26.5300    6.1500 H   0  0  0  0  0  0  0  0  0  0  0  0
   22.0000   27.0400    8.6200 H   0  0  0  0  0  0  0  0  0  0  0  0
   23.1100   21.3900   12.9900 H   0  0  0  0  0  0  0  0  0  0  0  0
   25.4100   21.2700   13.9900 H   0  0  0  0  0  0  0  0  0  0  0  0
   24.1700   21.1000   15.2100 H   0  0  0  0  0  0  0  0  0  0  0  0
   26.8800   24.7100   15.8000 H   0  0  0  0  0  0  0  0  0  0  0  0
   27.3000   26.8500   14.3500 H   0  0  0  0  0  0  0  0  0  0  0  0
   25.8400   27.2200   12.2800 H   0  0  0  0  0  0  0  0  0  0  0  0
   22.5000   23.4800   15.1200 H   0  0  0  0  0  0  0  0  0  0  0  0
   21.3700   23.1700   13.9100 H   0  0  0  0  0  0  0  0  0  0  0  0
   21.3500   22.7100   16.9500 H   0  0  0  0  0  0  0  0  0  0  0  0
   20.5200   21.0400   16.9800 H   0  0  0  0  0  0  0  0  0  0  0  0
   18.9600   22.8600   16.7900 H   0  0  0  0  0  0  0  0  0  0  0  0
   19.7900   23.3300   15.2800 H   0  0  0  0  0  0  0  0  0  0  0  0
   18.9300   20.3000   13.4400 H   0  0  0  0  0  0  0  0  0  0  0  0
   19.7700   21.8900   13.3600 H   0  0  0  0  0  0  0  0  0  0  0  0
   21.4300   20.2600   13.4700 H   0  0  0  0  0  0  0  0  0  0  0  0
   20.8000   19.5600   14.9900 H   0  0  0  0  0  0  0  0  0  0  0  0
  1  4  1  0  0  0  0
  1 33  1  0  0  0  0
  1 34  1  0  0  0  0
  1 35  1  0  0  0  0
  2  4  1  0  0  0  0
  2 21  1  0  0  0  0
  2 22  1  0  0  0  0
  3  9  1  0  0  0  0
  4  7  1  0  0  0  0
  5 28  1  0  0  0  0
  5 29  1  0  0  0  0
  5 32  1  0  0  0  0
  6 23  1  0  0  0  0
  6 24  1  0  0  0  0
  7  9  1  0  0  0  0
  7 20  1  0  0  0  0
  8 30  1  0  0  0  0
  8 31  1  0  0  0  0
  9 10  1  0  0  0  0
 10 11  1  0  0  0  0
 10 19  1  0  0  0  0
 11 12  1  0  0  0  0
 11 16  1  0  0  0  0
 12 13  1  0  0  0  0
 12 36  1  0  0  0  0
 13 14  1  0  0  0  0
 13 37  1  0  0  0  0
 14 15  1  0  0  0  0
 14 38  1  0  0  0  0
 15 16  1  0  0  0  0
 15 39  1  0  0  0  0
 16 17  1  0  0  0  0
 17 18  1  0  0  0  0
 17 40  1  0  0  0  0
 18 19  1  0  0  0  0
 18 41  1  0  0  0  0
 19 42  1  0  0  0  0
 20 21  1  0  0  0  0
 20 27  1  0  0  0  0
 21 24  1  0  0  0  0
 22 23  1  0  0  0  0
 22 28  1  0  0  0  0
 22 43  1  0  0  0  0
 23 44  1  0  0  0  0
 23 45  1  0  0  0  0
 24 25  1  0  0  0  0
 25 26  1  0  0  0  0
 25 46  1  0  0  0  0
 26 27  1  0  0  0  0
 26 47  1  0  0  0  0
 27 48  1  0  0  0  0
 28 49  1  0  0  0  0
 28 50  1  0  0  0  0
 29 30  1  0  0  0  0
 29 51  1  0  0  0  0
 29 52  1  0  0  0  0
 30 53  1  0  0  0  0
 30 54  1  0  0  0  0
 31 32  1  0  0  0  0
 31 55  1  0  0  0  0
 31 56  1  0  0  0  0
 32 57  1  0  0  0  0
 32 58  1  0  0  0  0
M  END
$$$$
WIN_all_conformer
  PyMOL2.3          3D                             0

 58 63  0  0  0  0  0  0  0  0999 V2000
   24.7900   21.3300   11.4600 C   0  0  0  0  0  0  0  0  0  0  0  0
   23.5300   23.3000   12.5200 N   0  0  0  0  0  0  0  0  0  0  0  0
   24.9500   22.5000    8.5200 O   0  0  0  0  0  0  0  0  0  0  0  0
   24.1800   22.7800   11.4200 C   0  0  0  0  0  0  0  0  0  0  0  0
   21.8000   20.9500   14.7200 N   0  0  0  0  0  0  0  0  0  0  0  0
   22.0300   24.8600   14.3100 O   0  0  0  0  0  0  0  0  0  0  0  0
   24.2300   23.7400   10.4300 C   0  0  0  0  0  0  0  0  0  0  0  0
   21.1700   18.4000   15.8900 O   0  0  0  0  0  0  0  0  0  0  0  0
   24.6400   23.5800    9.0300 C   0  0  0  0  0  0  0  0  0  0  0  0
   24.8200   24.8000    8.1100 C   0  0  0  0  0  0  0  0  0  0  0  0
   23.6700   25.1900    7.3100 C   0  0  0  0  0  0  0  0  0  0  0  0
   22.4400   24.6100    7.3500 C   0  0  0  0  0  0  0  0  0  0  0  0
   21.4200   25.1000    6.5900 C   0  0  0  0  0  0  0  0  0  0  0  0
   21.6100   26.1400    5.7300 C   0  0  0  0  0  0  0  0  0  0  0  0
   22.8900   26.7500    5.6300 C   0  0  0  0  0  0  0  0  0  0  0  0
   23.9300   26.2500    6.3900 C   0  0  0  0  0  0  0  0  0  0  0  0
   25.2000   26.8800    6.2400 C   0  0  0  0  0  0  0  0  0  0  0  0
   26.1900   26.5500    7.1300 C   0  0  0  0  0  0  0  0  0  0  0  0
   26.0000   25.5600    8.0500 C   0  0  0  0  0  0  0  0  0  0  0  0
   23.3900   24.9000   10.8900 C   0  0  0  0  0  0  0  0  0  0  0  0
   23.0400   24.5000   12.1600 C   0  0  0  0  0  0  0  0  0  0  0  0
   23.2500   22.6700   13.7900 C   0  0  0  0  0  0  0  0  0  0  0  0
   22.9700   23.8300   14.7900 C   0  0  0  0  0  0  0  0  0  0  0  0
   22.3300   25.3300   13.1000 C   0  0  0  0  0  0  0  0  0  0  0  0
   21.9800   26.5500   12.5900 C   0  0  0  0  0  0  0  0  0  0  0  0
   22.3300   27.0200   11.3400 C   0  0  0  0  0  0  0  0  0  0  0  0
   23.1000   26.2000   10.4500 C   0  0  0  0  0  0  0  0  0  0  0  0
   21.9900   21.7700   13.5100 C   0  0  0  0  0  0  0  0  0  0  0  0
   22.7700   19.8900   14.7400 C   0  0  0  0  0  0  0  0  0  0  0  0
   22.4800   19.0500   15.9900 C   0  0  0  0  0  0  0  0  0  0  0  0
   20.0500   19.3300   15.7600 C   0  0  0  0  0  0  0  0  0  0  0  0
   20.3600   20.4500   14.7000 C   0  0  0  0  0  0  0  0  0  0  0  0
   24.0000   20.5800   11.3000 H   0  0  0  0  0  0  0  0  0  0  0  0
   25.2500   21.0900   12.4300 H   0  0  0  0  0  0  0  0  0  0  0  0
   25.5200   21.0900   10.6900 H   0  0  0  0  0  0  0  0  0  0  0  0
   22.2100   23.7500    7.9700 H   0  0  0  0  0  0  0  0  0  0  0  0
   20.3800   24.7700    6.5700 H   0  0  0  0  0  0  0  0  0  0  0  0
   20.7100   26.5100    5.2300 H   0  0  0  0  0  0  0  0  0  0  0  0
   23.0400   27.5600    4.9500 H   0  0  0  0  0  0  0  0  0  0  0  0
   25.3500   27.6500    5.4900 H   0  0  0  0  0  0  0  0  0  0  0  0
   27.2000   26.9400    7.2600 H   0  0  0  0  0  0  0  0  0  0  0  0
   26.8000   25.2000    8.6900 H   0  0  0  0  0  0  0  0  0  0  0  0
   24.1100   22.0800   14.1000 H   0  0  0  0  0  0  0  0  0  0  0  0
   23.9800   24.1700   15.0000 H   0  0  0  0  0  0  0  0  0  0  0  0
   22.5700   23.3300   15.6800 H   0  0  0  0  0  0  0  0  0  0  0  0
   21.4200   27.2000   13.2500 H   0  0  0  0  0  0  0  0  0  0  0  0
   22.1300   28.0100   10.9800 H   0  0  0  0  0  0  0  0  0  0  0  0
   23.4400   26.7600    9.5900 H   0  0  0  0  0  0  0  0  0  0  0  0
   21.1400   22.4300   13.3000 H   0  0  0  0  0  0  0  0  0  0  0  0
   22.1000   21.2300   12.5700 H   0  0  0  0  0  0  0  0  0  0  0  0
   23.7700   20.3500   14.7500 H   0  0  0  0  0  0  0  0  0  0  0  0
   22.6100   19.3100   13.8300 H   0  0  0  0  0  0  0  0  0  0  0  0
   23.2800   18.3200   16.1900 H   0  0  0  0  0  0  0  0  0  0  0  0
   22.5900   19.6600   16.8900 H   0  0  0  0  0  0  0  0  0  0  0  0
   19.1300   18.8100   15.4500 H   0  0  0  0  0  0  0  0  0  0  0  0
   19.8400   19.8800   16.6800 H   0  0  0  0  0  0  0  0  0  0  0  0
   19.6900   21.2400   15.0400 H   0  0  0  0  0  0  0  0  0  0  0  0
   20.1400   20.1400   13.6800 H   0  0  0  0  0  0  0  0  0  0  0  0
  1  4  1  0  0  0  0
  1 33  1  0  0  0  0
  1 34  1  0  0  0  0
  1 35  1  0  0  0  0
  2  4  1  0  0  0  0
  2 21  1  0  0  0  0
  2 22  1  0  0  0  0
  3  9  1  0  0  0  0
  4  7  1  0  0  0  0
  5 28  1  0  0  0  0
  5 29  1  0  0  0  0
  5 32  1  0  0  0  0
  6 23  1  0  0  0  0
  6 24  1  0  0  0  0
  7  9  1  0  0  0  0
  7 20  1  0  0  0  0
  8 30  1  0  0  0  0
  8 31  1  0  0  0  0
  9 10  1  0  0  0  0
 10 11  1  0  0  0  0
 10 19  1  0  0  0  0
 11 12  1  0  0  0  0
 11 16  1  0  0  0  0
 12 13  1  0  0  0  0
 12 36  1  0  0  0  0
 13 14  1  0  0  0  0
 13 37  1  0  0  0  0
 14 15  1  0  0  0  0
 14 38  1  0  0  0  0
 15 16  1  0  0  0  0
 15 39  1  0  0  0  0
 16 17  1  0  0  0  0
 17 18  1  0  0  0  0
 17 40  1  0  0  0  0
 18 19  1  0  0  0  0
 18 41  1  0  0  0  0
 19 42  1  0  0  0  0
 20 21  1  0  0  0  0
 20 27  1  0  0  0  0
 21 24  1  0  0  0  0
 22 23  1  0  0  0  0
 22 28  1  0  0  0  0
 22 43  1  0  0  0  0
 23 44  1  0  0  0  0
 23 45  1  0  0  0  0
 24 25  1  0  0  0  0
 25 26  1  0  0  0  0
 25 46  1  0  0  0  0
 26 27  1  0  0  0  0
 26 47  1  0  0  0  0
 27 48  1  0  0  0  0
 28 49  1  0  0  0  0
 28 50  1  0  0  0  0
 29 30  1  0  0  0  0
 29 51  1  0  0  0  0
 29 52  1  0  0  0  0
 30 53  1  0  0  0  0
 30 54  1  0  0  0  0
 31 32  1  0  0  0  0
 31 55  1  0  0  0  0
 31 56  1  0  0  0  0
 32 57  1  0  0  0  0
 32 58  1  0  0  0  0
M  END
$$$$
WIN_all_conformer
  PyMOL2.3          3D                             0

 58 63  0  0  0  0  0  0  0  0999 V2000
   24.5800   21.1000   11.2200 C   0  0  0  0  0  0  0  0  0  0  0  0
   24.2700   23.1400   12.7400 N   0  0  0  0  0  0  0  0  0  0  0  0
   23.8300   22.3000    8.5000 O   0  0  0  0  0  0  0  0  0  0  0  0
   24.2500   22.5600   11.4400 C   0  0  0  0  0  0  0  0  0  0  0  0
   21.9800   21.4600   14.0900 N   0  0  0  0  0  0  0  0  0  0  0  0
   24.6200   24.9500   14.8700 O   0  0  0  0  0  0  0  0  0  0  0  0
   24.0600   23.5900   10.4900 C   0  0  0  0  0  0  0  0  0  0  0  0
   20.1500   19.3000   13.7900 O   0  0  0  0  0  0  0  0  0  0  0  0
   23.9400   23.4200    9.0200 C   0  0  0  0  0  0  0  0  0  0  0  0
   23.7300   24.5200    8.1500 C   0  0  0  0  0  0  0  0  0  0  0  0
   24.7100   25.4900    7.7800 C   0  0  0  0  0  0  0  0  0  0  0  0
   26.0500   25.5100    8.1600 C   0  0  0  0  0  0  0  0  0  0  0  0
   26.9200   26.4600    7.7500 C   0  0  0  0  0  0  0  0  0  0  0  0
   26.4400   27.5700    7.0200 C   0  0  0  0  0  0  0  0  0  0  0  0
   25.1400   27.5500    6.5600 C   0  0  0  0  0  0  0  0  0  0  0  0
   24.2200   26.5400    6.9700 C   0  0  0  0  0  0  0  0  0  0  0  0
   22.9000   26.7300    6.6100 C   0  0  0  0  0  0  0  0  0  0  0  0
   22.0300   25.7400    6.8900 C   0  0  0  0  0  0  0  0  0  0  0  0
   22.4400   24.6700    7.7100 C   0  0  0  0  0  0  0  0  0  0  0  0
   23.9200   24.8900   11.1800 C   0  0  0  0  0  0  0  0  0  0  0  0
   24.2400   24.5300   12.5400 C   0  0  0  0  0  0  0  0  0  0  0  0
   24.3100   22.5900   14.1200 C   0  0  0  0  0  0  0  0  0  0  0  0
   25.1300   23.5900   14.8900 C   0  0  0  0  0  0  0  0  0  0  0  0
   24.3200   25.4400   13.6100 C   0  0  0  0  0  0  0  0  0  0  0  0
   24.1200   26.7400   13.2600 C   0  0  0  0  0  0  0  0  0  0  0  0
   23.8000   27.1500   11.9500 C   0  0  0  0  0  0  0  0  0  0  0  0
   23.6900   26.2700   10.8700 C   0  0  0  0  0  0  0  0  0  0  0  0
   23.0000   22.3500   14.8600 C   0  0  0  0  0  0  0  0  0  0  0  0
   20.6200   21.4400   14.7200 C   0  0  0  0  0  0  0  0  0  0  0  0
   19.6800   20.6400   13.8500 C   0  0  0  0  0  0  0  0  0  0  0  0
   21.4300   19.1800   13.2300 C   0  0  0  0  0  0  0  0  0  0  0  0
   22.4800   20.0900   13.9700 C   0  0  0  0  0  0  0  0  0  0  0  0
   25.1200   20.6600   12.0600 H   0  0  0  0  0  0  0  0  0  0  0  0
   25.2500   21.0300   10.3600 H   0  0  0  0  0  0  0  0  0  0  0  0
   23.6600   20.5500   11.0200 H   0  0  0  0  0  0  0  0  0  0  0  0
   26.4300   24.7700    8.8800 H   0  0  0  0  0  0  0  0  0  0  0  0
   27.9500   26.4600    8.0900 H   0  0  0  0  0  0  0  0  0  0  0  0
   27.1400   28.3800    6.8100 H   0  0  0  0  0  0  0  0  0  0  0  0
   24.7700   28.4700    6.1200 H   0  0  0  0  0  0  0  0  0  0  0  0
   22.7000   27.6200    6.0200 H   0  0  0  0  0  0  0  0  0  0  0  0
   21.0100   25.7000    6.5300 H   0  0  0  0  0  0  0  0  0  0  0  0
   21.6700   23.9100    7.7800 H   0  0  0  0  0  0  0  0  0  0  0  0
   24.9500   21.7000   14.1100 H   0  0  0  0  0  0  0  0  0  0  0  0
   26.1500   23.5600   14.4900 H   0  0  0  0  0  0  0  0  0  0  0  0
   25.2100   23.3800   15.9600 H   0  0  0  0  0  0  0  0  0  0  0  0
   24.0800   27.4700   14.0500 H   0  0  0  0  0  0  0  0  0  0  0  0
   23.5200   28.1400   11.6400 H   0  0  0  0  0  0  0  0  0  0  0  0
   23.4000   26.5100    9.8600 H   0  0  0  0  0  0  0  0  0  0  0  0
   23.2400   21.9200   15.8300 H   0  0  0  0  0  0  0  0  0  0  0  0
   22.5500   23.3400   14.9800 H   0  0  0  0  0  0  0  0  0  0  0  0
   20.2400   22.4600   14.7900 H   0  0  0  0  0  0  0  0  0  0  0  0
   20.6300   21.0700   15.7500 H   0  0  0  0  0  0  0  0  0  0  0  0
   18.6800   20.7400   14.2700 H   0  0  0  0  0  0  0  0  0  0  0  0
   19.6200   21.0500   12.8300 H   0  0  0  0  0  0  0  0  0  0  0  0
   21.7600   18.1600   13.0300 H   0  0  0  0  0  0  0  0  0  0  0  0
   21.4000   19.5200   12.2000 H   0  0  0  0  0  0  0  0  0  0  0  0
   23.4700   20.0200   13.5400 H   0  0  0  0  0  0  0  0  0  0  0  0
   22.4500   19.6400   14.9800 H   0  0  0  0  0  0  0  0  0  0  0  0
  1  4  1  0  0  0  0
  1 33  1  0  0  0  0
  1 34  1  0  0  0  0
  1 35  1  0  0  0  0
  2  4  1  0  0  0  0
  2 21  1  0  0  0  0
  2 22  1  0  0  0  0
  3  9  1  0  0  0  0
  4  7  1  0  0  0  0
  5 28  1  0  0  0  0
  5 29  1  0  0  0  0
  5 32  1  0  0  0  0
  6 23  1  0  0  0  0
  6 24  1  0  0  0  0
  7  9  1  0  0  0  0
  7 20  1  0  0  0  0
  8 30  1  0  0  0  0
  8 31  1  0  0  0  0
  9 10  1  0  0  0  0
 10 11  1  0  0  0  0
 10 19  1  0  0  0  0
 11 12  1  0  0  0  0
 11 16  1  0  0  0  0
 12 13  1  0  0  0  0
 12 36  1  0  0  0  0
 13 14  1  0  0  0  0
 13 37  1  0  0  0  0
 14 15  1  0  0  0  0
 14 38  1  0  0  0  0
 15 16  1  0  0  0  0
 15 39  1  0  0  0  0
 16 17  1  0  0  0  0
 17 18  1  0  0  0  0
 17 40  1  0  0  0  0
 18 19  1  0  0  0  0
 18 41  1  0  0  0  0
 19 42  1  0  0  0  0
 20 21  1  0  0  0  0
 20 27  1  0  0  0  0
 21 24  1  0  0  0  0
 22 23  1  0  0  0  0
 22 28  1  0  0  0  0
 22 43  1  0  0  0  0
 23 44  1  0  0  0  0
 23 45  1  0  0  0  0
 24 25  1  0  0  0  0
 25 26  1  0  0  0  0
 25 46  1  0  0  0  0
 26 27  1  0  0  0  0
 26 47  1  0  0  0  0
 27 48  1  0  0  0  0
 28 49  1  0  0  0  0
 28 50  1  0  0  0  0
 29 30  1  0  0  0  0
 29 51  1  0  0  0  0
 29 52  1  0  0  0  0
 30 53  1  0  0  0  0
 30 54  1  0  0  0  0
 31 32  1  0  0  0  0
 31 55  1  0  0  0  0
 31 56  1  0  0  0  0
 32 57  1  0  0  0  0
 32 58  1  0  0  0  0
M  END
$$$$
WIN_all_conformer
  PyMOL2.3          3D                             0

 58 63  0  0  0  0  0  0  0  0999 V2000
   25.0000   21.8600   11.0900 C   0  0  0  0  0  0  0  0  0  0  0  0
   24.5400   23.1200   13.2600 N   0  0  0  0  0  0  0  0  0  0  0  0
   26.4100   25.7000   10.1000 O   0  0  0  0  0  0  0  0  0  0  0  0
   24.8800   23.0600   11.8800 C   0  0  0  0  0  0  0  0  0  0  0  0
   21.8300   21.2800   13.4400 N   0  0  0  0  0  0  0  0  0  0  0  0
   24.1900   23.7600   15.9400 O   0  0  0  0  0  0  0  0  0  0  0  0
   25.0900   24.3900   11.4900 C   0  0  0  0  0  0  0  0  0  0  0  0
   21.3500   20.1700   10.7700 O   0  0  0  0  0  0  0  0  0  0  0  0
   25.5200   24.8600   10.1900 C   0  0  0  0  0  0  0  0  0  0  0  0
   24.8900   24.3700    8.8500 C   0  0  0  0  0  0  0  0  0  0  0  0
   23.4700   24.3800    8.6100 C   0  0  0  0  0  0  0  0  0  0  0  0
   22.5600   24.8500    9.5700 C   0  0  0  0  0  0  0  0  0  0  0  0
   21.1700   24.8300    9.2400 C   0  0  0  0  0  0  0  0  0  0  0  0
   20.7200   24.3800    7.9600 C   0  0  0  0  0  0  0  0  0  0  0  0
   21.6300   23.8900    7.0700 C   0  0  0  0  0  0  0  0  0  0  0  0
   23.0400   23.8800    7.3700 C   0  0  0  0  0  0  0  0  0  0  0  0
   23.9000   23.3300    6.4400 C   0  0  0  0  0  0  0  0  0  0  0  0
   25.3100   23.3500    6.6600 C   0  0  0  0  0  0  0  0  0  0  0  0
   25.7600   23.9300    7.8800 C   0  0  0  0  0  0  0  0  0  0  0  0
   25.0000   25.2500   12.6400 C   0  0  0  0  0  0  0  0  0  0  0  0
   24.6900   24.4000   13.6800 C   0  0  0  0  0  0  0  0  0  0  0  0
   24.1200   22.0800   14.2000 C   0  0  0  0  0  0  0  0  0  0  0  0
   24.7400   22.4600   15.5700 C   0  0  0  0  0  0  0  0  0  0  0  0
   24.4400   24.7700   14.9900 C   0  0  0  0  0  0  0  0  0  0  0  0
   24.6900   26.1600   15.2900 C   0  0  0  0  0  0  0  0  0  0  0  0
   25.0300   27.0600   14.2200 C   0  0  0  0  0  0  0  0  0  0  0  0
   25.1300   26.6300   12.8700 C   0  0  0  0  0  0  0  0  0  0  0  0
   22.6200   21.8300   14.5200 C   0  0  0  0  0  0  0  0  0  0  0  0
   22.2800   19.9200   13.0000 C   0  0  0  0  0  0  0  0  0  0  0  0
   21.4400   19.2900   11.9200 C   0  0  0  0  0  0  0  0  0  0  0  0
   20.6800   21.3800   11.1600 C   0  0  0  0  0  0  0  0  0  0  0  0
   21.4800   22.1800   12.2700 C   0  0  0  0  0  0  0  0  0  0  0  0
   25.5400   21.1400   11.7000 H   0  0  0  0  0  0  0  0  0  0  0  0
   25.4200   22.0200   10.0900 H   0  0  0  0  0  0  0  0  0  0  0  0
   24.0300   21.4600   10.8000 H   0  0  0  0  0  0  0  0  0  0  0  0
   22.8600   25.1700   10.5500 H   0  0  0  0  0  0  0  0  0  0  0  0
   20.4100   25.2700    9.8600 H   0  0  0  0  0  0  0  0  0  0  0  0
   19.6700   24.3700    7.6800 H   0  0  0  0  0  0  0  0  0  0  0  0
   21.3200   23.5100    6.1000 H   0  0  0  0  0  0  0  0  0  0  0  0
   23.5000   22.7900    5.5900 H   0  0  0  0  0  0  0  0  0  0  0  0
   25.9700   22.9200    5.9100 H   0  0  0  0  0  0  0  0  0  0  0  0
   26.8300   23.8700    8.0700 H   0  0  0  0  0  0  0  0  0  0  0  0
   24.5300   21.1300   13.8500 H   0  0  0  0  0  0  0  0  0  0  0  0
   25.8400   22.5400   15.5400 H   0  0  0  0  0  0  0  0  0  0  0  0
   24.4900   21.7100   16.3300 H   0  0  0  0  0  0  0  0  0  0  0  0
   24.6600   26.5400   16.3100 H   0  0  0  0  0  0  0  0  0  0  0  0
   25.1100   28.1300   14.4300 H   0  0  0  0  0  0  0  0  0  0  0  0
   25.6000   27.2700   12.1200 H   0  0  0  0  0  0  0  0  0  0  0  0
   22.4600   21.0900   15.3000 H   0  0  0  0  0  0  0  0  0  0  0  0
   22.1900   22.8200   14.6900 H   0  0  0  0  0  0  0  0  0  0  0  0
   22.3100   19.1500   13.7500 H   0  0  0  0  0  0  0  0  0  0  0  0
   23.2900   20.0400   12.5800 H   0  0  0  0  0  0  0  0  0  0  0  0
   21.9500   18.3800   11.5900 H   0  0  0  0  0  0  0  0  0  0  0  0
   20.4800   19.0000   12.3600 H   0  0  0  0  0  0  0  0  0  0  0  0
   20.6500   21.9600   10.2200 H   0  0  0  0  0  0  0  0  0  0  0  0
   19.6900   21.2200   11.5600 H   0  0  0  0  0  0  0  0  0  0  0  0
   20.8900   23.0700   12.5200 H   0  0  0  0  0  0  0  0  0  0  0  0
   22.4100   22.5800   11.8500 H   0  0  0  0  0  0  0  0  0  0  0  0
  1  4  1  0  0  0  0
  1 33  1  0  0  0  0
  1 34  1  0  0  0  0
  1 35  1  0  0  0  0
  2  4  1  0  0  0  0
  2 21  1  0  0  0  0
  2 22  1  0  0  0  0
  3  9  1  0  0  0  0
  4  7  1  0  0  0  0
  5 28  1  0  0  0  0
  5 29  1  0  0  0  0
  5 32  1  0  0  0  0
  6 23  1  0  0  0  0
  6 24  1  0  0  0  0
  7  9  1  0  0  0  0
  7 20  1  0  0  0  0
  8 30  1  0  0  0  0
  8 31  1  0  0  0  0
  9 10  1  0  0  0  0
 10 11  1  0  0  0  0
 10 19  1  0  0  0  0
 11 12  1  0  0  0  0
 11 16  1  0  0  0  0
 12 13  1  0  0  0  0
 12 36  1  0  0  0  0
 13 14  1  0  0  0  0
 13 37  1  0  0  0  0
 14 15  1  0  0  0  0
 14 38  1  0  0  0  0
 15 16  1  0  0  0  0
 15 39  1  0  0  0  0
 16 17  1  0  0  0  0
 17 18  1  0  0  0  0
 17 40  1  0  0  0  0
 18 19  1  0  0  0  0
 18 41  1  0  0  0  0
 19 42  1  0  0  0  0
 20 21  1  0  0  0  0
 20 27  1  0  0  0  0
 21 24  1  0  0  0  0
 22 23  1  0  0  0  0
 22 28  1  0  0  0  0
 22 43  1  0  0  0  0
 23 44  1  0  0  0  0
 23 45  1  0  0  0  0
 24 25  1  0  0  0  0
 25 26  1  0  0  0  0
 25 46  1  0  0  0  0
 26 27  1  0  0  0  0
 26 47  1  0  0  0  0
 27 48  1  0  0  0  0
 28 49  1  0  0  0  0
 28 50  1  0  0  0  0
 29 30  1  0  0  0  0
 29 51  1  0  0  0  0
 29 52  1  0  0  0  0
 30 53  1  0  0  0  0
 30 54  1  0  0  0  0
 31 32  1  0  0  0  0
 31 55  1  0  0  0  0
 31 56  1  0  0  0  0
 32 57  1  0  0  0  0
 32 58  1  0  0  0  0
M  END
$$$$
WIN_all_conformer
  PyMOL2.3          3D                             0

 58 63  0  0  0  0  0  0  0  0999 V2000
   24.6100   21.6000   11.7900 C   0  0  0  0  0  0  0  0  0  0  0  0
   23.5200   23.6500   13.1200 N   0  0  0  0  0  0  0  0  0  0  0  0
   23.6900   22.5800    8.8500 O   0  0  0  0  0  0  0  0  0  0  0  0
   23.8400   22.9200   11.9300 C   0  0  0  0  0  0  0  0  0  0  0  0
   22.3900   21.2600   15.0500 N   0  0  0  0  0  0  0  0  0  0  0  0
   22.9900   25.7500   15.1000 O   0  0  0  0  0  0  0  0  0  0  0  0
   23.6800   23.8300   10.9500 C   0  0  0  0  0  0  0  0  0  0  0  0
   20.5300   19.1100   14.4400 O   0  0  0  0  0  0  0  0  0  0  0  0
   23.9200   23.6500    9.4400 C   0  0  0  0  0  0  0  0  0  0  0  0
   24.3100   24.8400    8.5700 C   0  0  0  0  0  0  0  0  0  0  0  0
   23.2800   25.4400    7.6400 C   0  0  0  0  0  0  0  0  0  0  0  0
   22.0200   24.8700    7.5000 C   0  0  0  0  0  0  0  0  0  0  0  0
   21.1100   25.5500    6.6400 C   0  0  0  0  0  0  0  0  0  0  0  0
   21.5200   26.7000    5.9500 C   0  0  0  0  0  0  0  0  0  0  0  0
   22.8600   27.1500    6.0300 C   0  0  0  0  0  0  0  0  0  0  0  0
   23.7700   26.5700    6.8900 C   0  0  0  0  0  0  0  0  0  0  0  0
   25.0700   27.1200    7.1900 C   0  0  0  0  0  0  0  0  0  0  0  0
   26.0600   26.5400    7.9300 C   0  0  0  0  0  0  0  0  0  0  0  0
   25.5900   25.4500    8.6800 C   0  0  0  0  0  0  0  0  0  0  0  0
   23.3800   25.1000   11.4800 C   0  0  0  0  0  0  0  0  0  0  0  0
   23.1800   24.9200   12.8600 C   0  0  0  0  0  0  0  0  0  0  0  0
   23.7900   23.3700   14.5500 C   0  0  0  0  0  0  0  0  0  0  0  0
   23.0700   24.3400   15.5100 C   0  0  0  0  0  0  0  0  0  0  0  0
   23.0300   25.9300   13.7700 C   0  0  0  0  0  0  0  0  0  0  0  0
   22.9500   27.1800   13.3000 C   0  0  0  0  0  0  0  0  0  0  0  0
   22.9700   27.4600   11.9300 C   0  0  0  0  0  0  0  0  0  0  0  0
   23.2800   26.4200   11.0100 C   0  0  0  0  0  0  0  0  0  0  0  0
   23.6900   21.9400   14.9800 C   0  0  0  0  0  0  0  0  0  0  0  0
   22.4600   19.8300   15.6900 C   0  0  0  0  0  0  0  0  0  0  0  0
   21.0700   19.1400   15.8100 C   0  0  0  0  0  0  0  0  0  0  0  0
   20.2100   20.4600   14.0000 C   0  0  0  0  0  0  0  0  0  0  0  0
   21.5600   21.2700   13.8100 C   0  0  0  0  0  0  0  0  0  0  0  0
   25.0600   21.4700   10.8000 H   0  0  0  0  0  0  0  0  0  0  0  0
   24.0400   20.6800   11.9000 H   0  0  0  0  0  0  0  0  0  0  0  0
   25.3900   21.7000   12.5400 H   0  0  0  0  0  0  0  0  0  0  0  0
   21.6800   24.0200    8.0600 H   0  0  0  0  0  0  0  0  0  0  0  0
   20.0800   25.2500    6.4500 H   0  0  0  0  0  0  0  0  0  0  0  0
   20.8700   27.2500    5.2700 H   0  0  0  0  0  0  0  0  0  0  0  0
   23.0900   28.0400    5.4700 H   0  0  0  0  0  0  0  0  0  0  0  0
   25.3800   28.0000    6.6300 H   0  0  0  0  0  0  0  0  0  0  0  0
   27.0300   27.0100    7.8900 H   0  0  0  0  0  0  0  0  0  0  0  0
   26.3400   24.8900    9.2400 H   0  0  0  0  0  0  0  0  0  0  0  0
   24.8300   23.6700   14.5600 H   0  0  0  0  0  0  0  0  0  0  0  0
   23.5100   24.3100   16.5100 H   0  0  0  0  0  0  0  0  0  0  0  0
   22.0300   24.0000   15.5700 H   0  0  0  0  0  0  0  0  0  0  0  0
   22.8800   28.0100   13.9900 H   0  0  0  0  0  0  0  0  0  0  0  0
   22.9000   28.4700   11.5700 H   0  0  0  0  0  0  0  0  0  0  0  0
   23.4000   26.8200   10.0000 H   0  0  0  0  0  0  0  0  0  0  0  0
   24.3600   21.2900   14.3900 H   0  0  0  0  0  0  0  0  0  0  0  0
   24.0300   21.8300   16.0200 H   0  0  0  0  0  0  0  0  0  0  0  0
   22.8900   19.8800   16.7000 H   0  0  0  0  0  0  0  0  0  0  0  0
   23.1100   19.1700   15.1200 H   0  0  0  0  0  0  0  0  0  0  0  0
   21.1300   18.1500   16.2500 H   0  0  0  0  0  0  0  0  0  0  0  0
   20.3600   19.6600   16.4600 H   0  0  0  0  0  0  0  0  0  0  0  0
   19.7200   20.4600   13.0100 H   0  0  0  0  0  0  0  0  0  0  0  0
   19.5900   20.9700   14.7500 H   0  0  0  0  0  0  0  0  0  0  0  0
   21.4100   22.2800   13.4500 H   0  0  0  0  0  0  0  0  0  0  0  0
   22.2200   20.8200   13.0600 H   0  0  0  0  0  0  0  0  0  0  0  0
  1  4  1  0  0  0  0
  1 33  1  0  0  0  0
  1 34  1  0  0  0  0
  1 35  1  0  0  0  0
  2  4  1  0  0  0  0
  2 21  1  0  0  0  0
  2 22  1  0  0  0  0
  3  9  1  0  0  0  0
  4  7  1  0  0  0  0
  5 28  1  0  0  0  0
  5 29  1  0  0  0  0
  5 32  1  0  0  0  0
  6 23  1  0  0  0  0
  6 24  1  0  0  0  0
  7  9  1  0  0  0  0
  7 20  1  0  0  0  0
  8 30  1  0  0  0  0
  8 31  1  0  0  0  0
  9 10  1  0  0  0  0
 10 11  1  0  0  0  0
 10 19  1  0  0  0  0
 11 12  1  0  0  0  0
 11 16  1  0  0  0  0
 12 13  1  0  0  0  0
 12 36  1  0  0  0  0
 13 14  1  0  0  0  0
 13 37  1  0  0  0  0
 14 15  1  0  0  0  0
 14 38  1  0  0  0  0
 15 16  1  0  0  0  0
 15 39  1  0  0  0  0
 16 17  1  0  0  0  0
 17 18  1  0  0  0  0
 17 40  1  0  0  0  0
 18 19  1  0  0  0  0
 18 41  1  0  0  0  0
 19 42  1  0  0  0  0
 20 21  1  0  0  0  0
 20 27  1  0  0  0  0
 21 24  1  0  0  0  0
 22 23  1  0  0  0  0
 22 28  1  0  0  0  0
 22 43  1  0  0  0  0
 23 44  1  0  0  0  0
 23 45  1  0  0  0  0
 24 25  1  0  0  0  0
 25 26  1  0  0  0  0
 25 46  1  0  0  0  0
 26 27  1  0  0  0  0
 26 47  1  0  0  0  0
 27 48  1  0  0  0  0
 28 49  1  0  0  0  0
 28 50  1  0  0  0  0
 29 30  1  0  0  0  0
 29 51  1  0  0  0  0
 29 52  1  0  0  0  0
 30 53  1  0  0  0  0
 30 54  1  0  0  0  0
 31 32  1  0  0  0  0
 31 55  1  0  0  0  0
 31 56  1  0  0  0  0
 32 57  1  0  0  0  0
 32 58  1  0  0  0  0
M  END
$$$$
WIN_all_conformer
  PyMOL2.3          3D                             0

 58 63  0  0  0  0  0  0  0  0999 V2000
   25.5800   20.8600   11.9700 C   0  0  0  0  0  0  0  0  0  0  0  0
   24.5400   22.5100   13.6600 N   0  0  0  0  0  0  0  0  0  0  0  0
   24.8500   22.1300    9.4000 O   0  0  0  0  0  0  0  0  0  0  0  0
   24.8600   22.1100   12.3600 C   0  0  0  0  0  0  0  0  0  0  0  0
   22.5600   20.7200   15.2500 N   0  0  0  0  0  0  0  0  0  0  0  0
   23.7700   24.0200   15.9500 O   0  0  0  0  0  0  0  0  0  0  0  0
   24.4100   23.1200   11.4600 C   0  0  0  0  0  0  0  0  0  0  0  0
   19.8500   20.1100   15.9600 O   0  0  0  0  0  0  0  0  0  0  0  0
   24.5400   23.1300    9.9600 C   0  0  0  0  0  0  0  0  0  0  0  0
   24.5300   24.3300    9.1700 C   0  0  0  0  0  0  0  0  0  0  0  0
   23.8600   24.5700    7.8900 C   0  0  0  0  0  0  0  0  0  0  0  0
   23.1500   23.5400    7.2300 C   0  0  0  0  0  0  0  0  0  0  0  0
   22.4700   23.8200    6.0500 C   0  0  0  0  0  0  0  0  0  0  0  0
   22.6500   25.0500    5.3800 C   0  0  0  0  0  0  0  0  0  0  0  0
   23.4500   26.0700    5.9700 C   0  0  0  0  0  0  0  0  0  0  0  0
   24.0100   25.8500    7.2600 C   0  0  0  0  0  0  0  0  0  0  0  0
   24.8400   26.8400    7.7800 C   0  0  0  0  0  0  0  0  0  0  0  0
   25.4700   26.5800    9.0300 C   0  0  0  0  0  0  0  0  0  0  0  0
   25.2700   25.3900    9.7000 C   0  0  0  0  0  0  0  0  0  0  0  0
   23.7900   24.1700   12.2900 C   0  0  0  0  0  0  0  0  0  0  0  0
   23.9400   23.7700   13.6100 C   0  0  0  0  0  0  0  0  0  0  0  0
   24.9100   21.8600   14.9000 C   0  0  0  0  0  0  0  0  0  0  0  0
   24.8700   23.0000   16.0400 C   0  0  0  0  0  0  0  0  0  0  0  0
   23.4400   24.4600   14.6600 C   0  0  0  0  0  0  0  0  0  0  0  0
   22.5600   25.5500   14.3400 C   0  0  0  0  0  0  0  0  0  0  0  0
   22.3200   26.0000   13.0100 C   0  0  0  0  0  0  0  0  0  0  0  0
   22.9600   25.2700   12.0300 C   0  0  0  0  0  0  0  0  0  0  0  0
   24.0600   20.6600   15.3400 C   0  0  0  0  0  0  0  0  0  0  0  0
   21.9400   21.3300   16.3900 C   0  0  0  0  0  0  0  0  0  0  0  0
   20.4100   21.4000   16.2000 C   0  0  0  0  0  0  0  0  0  0  0  0
   20.5100   19.5300   14.8000 C   0  0  0  0  0  0  0  0  0  0  0  0
   22.0000   19.3900   14.9900 C   0  0  0  0  0  0  0  0  0  0  0  0
   26.4700   21.2000   11.4400 H   0  0  0  0  0  0  0  0  0  0  0  0
   24.9300   20.2400   11.3500 H   0  0  0  0  0  0  0  0  0  0  0  0
   25.9400   20.2800   12.8200 H   0  0  0  0  0  0  0  0  0  0  0  0
   23.0900   22.5900    7.7600 H   0  0  0  0  0  0  0  0  0  0  0  0
   21.7200   23.1200    5.7000 H   0  0  0  0  0  0  0  0  0  0  0  0
   22.1100   25.4100    4.5200 H   0  0  0  0  0  0  0  0  0  0  0  0
   23.6100   27.0300    5.5000 H   0  0  0  0  0  0  0  0  0  0  0  0
   25.0100   27.8000    7.3000 H   0  0  0  0  0  0  0  0  0  0  0  0
   26.2100   27.2800    9.3900 H   0  0  0  0  0  0  0  0  0  0  0  0
   25.8900   25.2400   10.5900 H   0  0  0  0  0  0  0  0  0  0  0  0
   25.9800   21.6200   14.8200 H   0  0  0  0  0  0  0  0  0  0  0  0
   25.7500   23.6500   15.9400 H   0  0  0  0  0  0  0  0  0  0  0  0
   24.9300   22.6100   17.0500 H   0  0  0  0  0  0  0  0  0  0  0  0
   21.9900   26.0300   15.1300 H   0  0  0  0  0  0  0  0  0  0  0  0
   21.7200   26.8600   12.7500 H   0  0  0  0  0  0  0  0  0  0  0  0
   22.7300   25.5500   11.0100 H   0  0  0  0  0  0  0  0  0  0  0  0
   24.4900   19.7900   14.8600 H   0  0  0  0  0  0  0  0  0  0  0  0
   24.4000   20.3800   16.3400 H   0  0  0  0  0  0  0  0  0  0  0  0
   22.1700   22.4000   16.4700 H   0  0  0  0  0  0  0  0  0  0  0  0
   22.2200   20.8200   17.3200 H   0  0  0  0  0  0  0  0  0  0  0  0
   20.0200   21.7000   17.1800 H   0  0  0  0  0  0  0  0  0  0  0  0
   20.0200   22.0800   15.4400 H   0  0  0  0  0  0  0  0  0  0  0  0
   20.1100   18.5200   14.7000 H   0  0  0  0  0  0  0  0  0  0  0  0
   20.2700   20.0300   13.8600 H   0  0  0  0  0  0  0  0  0  0  0  0
   22.3700   18.9500   14.0600 H   0  0  0  0  0  0  0  0  0  0  0  0
   22.2700   18.7800   15.8700 H   0  0  0  0  0  0  0  0  0  0  0  0
  1  4  1  0  0  0  0
  1 33  1  0  0  0  0
  1 34  1  0  0  0  0
  1 35  1  0  0  0  0
  2  4  1  0  0  0  0
  2 21  1  0  0  0  0
  2 22  1  0  0  0  0
  3  9  1  0  0  0  0
  4  7  1  0  0  0  0
  5 28  1  0  0  0  0
  5 29  1  0  0  0  0
  5 32  1  0  0  0  0
  6 23  1  0  0  0  0
  6 24  1  0  0  0  0
  7  9  1  0  0  0  0
  7 20  1  0  0  0  0
  8 30  1  0  0  0  0
  8 31  1  0  0  0  0
  9 10  1  0  0  0  0
 10 11  1  0  0  0  0
 10 19  1  0  0  0  0
 11 12  1  0  0  0  0
 11 16  1  0  0  0  0
 12 13  1  0  0  0  0
 12 36  1  0  0  0  0
 13 14  1  0  0  0  0
 13 37  1  0  0  0  0
 14 15  1  0  0  0  0
 14 38  1  0  0  0  0
 15 16  1  0  0  0  0
 15 39  1  0  0  0  0
 16 17  1  0  0  0  0
 17 18  1  0  0  0  0
 17 40  1  0  0  0  0
 18 19  1  0  0  0  0
 18 41  1  0  0  0  0
 19 42  1  0  0  0  0
 20 21  1  0  0  0  0
 20 27  1  0  0  0  0
 21 24  1  0  0  0  0
 22 23  1  0  0  0  0
 22 28  1  0  0  0  0
 22 43  1  0  0  0  0
 23 44  1  0  0  0  0
 23 45  1  0  0  0  0
 24 25  1  0  0  0  0
 25 26  1  0  0  0  0
 25 46  1  0  0  0  0
 26 27  1  0  0  0  0
 26 47  1  0  0  0  0
 27 48  1  0  0  0  0
 28 49  1  0  0  0  0
 28 50  1  0  0  0  0
 29 30  1  0  0  0  0
 29 51  1  0  0  0  0
 29 52  1  0  0  0  0
 30 53  1  0  0  0  0
 30 54  1  0  0  0  0
 31 32  1  0  0  0  0
 31 55  1  0  0  0  0
 31 56  1  0  0  0  0
 32 57  1  0  0  0  0
 32 58  1  0  0  0  0
M  END
$$$$
WIN_all_conformer
  PyMOL2.3          3D                             0

 58 63  0  0  0  0  0  0  0  0999 V2000
   25.2900   21.5000   11.3300 C   0  0  0  0  0  0  0  0  0  0  0  0
   24.0000   23.2700   12.5300 N   0  0  0  0  0  0  0  0  0  0  0  0
   25.3800   22.8000    8.6100 O   0  0  0  0  0  0  0  0  0  0  0  0
   24.7300   22.9000   11.3900 C   0  0  0  0  0  0  0  0  0  0  0  0
   22.1400   21.0600   14.9900 N   0  0  0  0  0  0  0  0  0  0  0  0
   22.9300   24.8400   14.7100 O   0  0  0  0  0  0  0  0  0  0  0  0
   24.6900   24.0100   10.5100 C   0  0  0  0  0  0  0  0  0  0  0  0
   21.5800   18.9200   16.7700 O   0  0  0  0  0  0  0  0  0  0  0  0
   25.1600   23.9000    9.1200 C   0  0  0  0  0  0  0  0  0  0  0  0
   25.1400   25.0200    8.2700 C   0  0  0  0  0  0  0  0  0  0  0  0
   24.0800   25.3400    7.3600 C   0  0  0  0  0  0  0  0  0  0  0  0
   22.8800   24.6300    7.2700 C   0  0  0  0  0  0  0  0  0  0  0  0
   21.9400   24.9100    6.3300 C   0  0  0  0  0  0  0  0  0  0  0  0
   22.1700   25.9100    5.3900 C   0  0  0  0  0  0  0  0  0  0  0  0
   23.3600   26.6800    5.5000 C   0  0  0  0  0  0  0  0  0  0  0  0
   24.2600   26.4100    6.4900 C   0  0  0  0  0  0  0  0  0  0  0  0
   25.3600   27.2200    6.6300 C   0  0  0  0  0  0  0  0  0  0  0  0
   26.3700   27.0300    7.6300 C   0  0  0  0  0  0  0  0  0  0  0  0
   26.2600   25.9000    8.4200 C   0  0  0  0  0  0  0  0  0  0  0  0
   23.9500   25.0700   11.2000 C   0  0  0  0  0  0  0  0  0  0  0  0
   23.6200   24.6200   12.4700 C   0  0  0  0  0  0  0  0  0  0  0  0
   23.7400   22.4500   13.7400 C   0  0  0  0  0  0  0  0  0  0  0  0
   23.7000   23.5800   14.8600 C   0  0  0  0  0  0  0  0  0  0  0  0
   23.0300   25.3700   13.4600 C   0  0  0  0  0  0  0  0  0  0  0  0
   22.5900   26.6100   13.1100 C   0  0  0  0  0  0  0  0  0  0  0  0
   22.8600   27.1500   11.8200 C   0  0  0  0  0  0  0  0  0  0  0  0
   23.5700   26.3400   10.8200 C   0  0  0  0  0  0  0  0  0  0  0  0
   22.3500   21.8200   13.7600 C   0  0  0  0  0  0  0  0  0  0  0  0
   20.7200   20.5500   15.2500 C   0  0  0  0  0  0  0  0  0  0  0  0
   20.5800   20.0000   16.6800 C   0  0  0  0  0  0  0  0  0  0  0  0
   22.9000   19.5000   16.6600 C   0  0  0  0  0  0  0  0  0  0  0  0
   23.1400   20.0500   15.2800 C   0  0  0  0  0  0  0  0  0  0  0  0
   25.0900   21.1300   10.3300 H   0  0  0  0  0  0  0  0  0  0  0  0
   24.8800   20.8200   12.0900 H   0  0  0  0  0  0  0  0  0  0  0  0
   26.3700   21.5100   11.5100 H   0  0  0  0  0  0  0  0  0  0  0  0
   22.6600   23.8300    7.9800 H   0  0  0  0  0  0  0  0  0  0  0  0
   21.0700   24.2700    6.1900 H   0  0  0  0  0  0  0  0  0  0  0  0
   21.5000   26.0700    4.5400 H   0  0  0  0  0  0  0  0  0  0  0  0
   23.5400   27.4300    4.7400 H   0  0  0  0  0  0  0  0  0  0  0  0
   25.4700   28.1300    6.0400 H   0  0  0  0  0  0  0  0  0  0  0  0
   27.2200   27.7200    7.6900 H   0  0  0  0  0  0  0  0  0  0  0  0
   27.0100   25.5800    9.1300 H   0  0  0  0  0  0  0  0  0  0  0  0
   24.5900   21.7800   13.8800 H   0  0  0  0  0  0  0  0  0  0  0  0
   24.7200   23.9400   15.0100 H   0  0  0  0  0  0  0  0  0  0  0  0
   23.4800   23.0400   15.7900 H   0  0  0  0  0  0  0  0  0  0  0  0
   22.1600   27.2900   13.8400 H   0  0  0  0  0  0  0  0  0  0  0  0
   22.5700   28.1300   11.4600 H   0  0  0  0  0  0  0  0  0  0  0  0
   23.6100   26.8000    9.8400 H   0  0  0  0  0  0  0  0  0  0  0  0
   21.6300   22.6400   13.6700 H   0  0  0  0  0  0  0  0  0  0  0  0
   22.1100   21.1800   12.9000 H   0  0  0  0  0  0  0  0  0  0  0  0
   20.5500   19.7600   14.5100 H   0  0  0  0  0  0  0  0  0  0  0  0
   19.9500   21.3200   15.1300 H   0  0  0  0  0  0  0  0  0  0  0  0
   20.7900   20.7900   17.4000 H   0  0  0  0  0  0  0  0  0  0  0  0
   19.5600   19.6300   16.8000 H   0  0  0  0  0  0  0  0  0  0  0  0
   23.1300   20.1300   17.5100 H   0  0  0  0  0  0  0  0  0  0  0  0
   23.5800   18.6500   16.6200 H   0  0  0  0  0  0  0  0  0  0  0  0
   23.1700   19.2400   14.5400 H   0  0  0  0  0  0  0  0  0  0  0  0
   24.1800   20.3800   15.3200 H   0  0  0  0  0  0  0  0  0  0  0  0
  1  4  1  0  0  0  0
  1 33  1  0  0  0  0
  1 34  1  0  0  0  0
  1 35  1  0  0  0  0
  2  4  1  0  0  0  0
  2 21  1  0  0  0  0
  2 22  1  0  0  0  0
  3  9  1  0  0  0  0
  4  7  1  0  0  0  0
  5 28  1  0  0  0  0
  5 29  1  0  0  0  0
  5 32  1  0  0  0  0
  6 23  1  0  0  0  0
  6 24  1  0  0  0  0
  7  9  1  0  0  0  0
  7 20  1  0  0  0  0
  8 30  1  0  0  0  0
  8 31  1  0  0  0  0
  9 10  1  0  0  0  0
 10 11  1  0  0  0  0
 10 19  1  0  0  0  0
 11 12  1  0  0  0  0
 11 16  1  0  0  0  0
 12 13  1  0  0  0  0
 12 36  1  0  0  0  0
 13 14  1  0  0  0  0
 13 37  1  0  0  0  0
 14 15  1  0  0  0  0
 14 38  1  0  0  0  0
 15 16  1  0  0  0  0
 15 39  1  0  0  0  0
 16 17  1  0  0  0  0
 17 18  1  0  0  0  0
 17 40  1  0  0  0  0
 18 19  1  0  0  0  0
 18 41  1  0  0  0  0
 19 42  1  0  0  0  0
 20 21  1  0  0  0  0
 20 27  1  0  0  0  0
 21 24  1  0  0  0  0
 22 23  1  0  0  0  0
 22 28  1  0  0  0  0
 22 43  1  0  0  0  0
 23 44  1  0  0  0  0
 23 45  1  0  0  0  0
 24 25  1  0  0  0  0
 25 26  1  0  0  0  0
 25 46  1  0  0  0  0
 26 27  1  0  0  0  0
 26 47  1  0  0  0  0
 27 48  1  0  0  0  0
 28 49  1  0  0  0  0
 28 50  1  0  0  0  0
 29 30  1  0  0  0  0
 29 51  1  0  0  0  0
 29 52  1  0  0  0  0
 30 53  1  0  0  0  0
 30 54  1  0  0  0  0
 31 32  1  0  0  0  0
 31 55  1  0  0  0  0
 31 56  1  0  0  0  0
 32 57  1  0  0  0  0
 32 58  1  0  0  0  0
M  END
$$$$
WIN_all_conformer
  PyMOL2.3          3D                             0

 58 63  0  0  0  0  0  0  0  0999 V2000
   24.4100   20.6100   10.4600 C   0  0  0  0  0  0  0  0  0  0  0  0
   23.3600   22.5600   11.8200 N   0  0  0  0  0  0  0  0  0  0  0  0
   23.6500   21.7900    7.5900 O   0  0  0  0  0  0  0  0  0  0  0  0
   23.7100   21.9600   10.5900 C   0  0  0  0  0  0  0  0  0  0  0  0
   21.4400   20.8200   14.4700 N   0  0  0  0  0  0  0  0  0  0  0  0
   22.2900   24.3900   13.8700 O   0  0  0  0  0  0  0  0  0  0  0  0
   23.4700   22.9400    9.5900 C   0  0  0  0  0  0  0  0  0  0  0  0
   20.3600   18.5000   15.9300 O   0  0  0  0  0  0  0  0  0  0  0  0
   23.8500   22.8800    8.2000 C   0  0  0  0  0  0  0  0  0  0  0  0
   24.0100   24.0700    7.3800 C   0  0  0  0  0  0  0  0  0  0  0  0
   25.0400   25.0400    7.5800 C   0  0  0  0  0  0  0  0  0  0  0  0
   26.0800   24.8000    8.4600 C   0  0  0  0  0  0  0  0  0  0  0  0
   26.9900   25.8400    8.7000 C   0  0  0  0  0  0  0  0  0  0  0  0
   26.9700   27.0600    8.0700 C   0  0  0  0  0  0  0  0  0  0  0  0
   25.9100   27.2800    7.0900 C   0  0  0  0  0  0  0  0  0  0  0  0
   24.9600   26.2300    6.8400 C   0  0  0  0  0  0  0  0  0  0  0  0
   23.9600   26.4200    5.9000 C   0  0  0  0  0  0  0  0  0  0  0  0
   22.9800   25.4400    5.6600 C   0  0  0  0  0  0  0  0  0  0  0  0
   22.9700   24.2900    6.3600 C   0  0  0  0  0  0  0  0  0  0  0  0
   22.8400   24.0800   10.2000 C   0  0  0  0  0  0  0  0  0  0  0  0
   22.7900   23.8300   11.5200 C   0  0  0  0  0  0  0  0  0  0  0  0
   23.1800   22.1500   13.2100 C   0  0  0  0  0  0  0  0  0  0  0  0
   23.1700   23.2700   14.2600 C   0  0  0  0  0  0  0  0  0  0  0  0
   22.2500   24.6900   12.5400 C   0  0  0  0  0  0  0  0  0  0  0  0
   21.6000   25.8500   12.0900 C   0  0  0  0  0  0  0  0  0  0  0  0
   21.6900   26.2400   10.7100 C   0  0  0  0  0  0  0  0  0  0  0  0
   22.2900   25.3500    9.7800 C   0  0  0  0  0  0  0  0  0  0  0  0
   21.8500   21.4200   13.1800 C   0  0  0  0  0  0  0  0  0  0  0  0
   22.2100   19.6500   14.7900 C   0  0  0  0  0  0  0  0  0  0  0  0
   21.7800   18.8600   16.0800 C   0  0  0  0  0  0  0  0  0  0  0  0
   19.5000   19.6800   15.6200 C   0  0  0  0  0  0  0  0  0  0  0  0
   19.9900   20.4200   14.3900 C   0  0  0  0  0  0  0  0  0  0  0  0
   24.8800   20.3500   11.4000 H   0  0  0  0  0  0  0  0  0  0  0  0
   25.2300   20.6800    9.7200 H   0  0  0  0  0  0  0  0  0  0  0  0
   23.7000   19.8400   10.1700 H   0  0  0  0  0  0  0  0  0  0  0  0
   26.0500   23.8400    8.9600 H   0  0  0  0  0  0  0  0  0  0  0  0
   27.8600   25.6500    9.3300 H   0  0  0  0  0  0  0  0  0  0  0  0
   27.7400   27.8100    8.2300 H   0  0  0  0  0  0  0  0  0  0  0  0
   25.8100   28.3100    6.7800 H   0  0  0  0  0  0  0  0  0  0  0  0
   23.8500   27.4100    5.4800 H   0  0  0  0  0  0  0  0  0  0  0  0
   22.3000   25.6000    4.8300 H   0  0  0  0  0  0  0  0  0  0  0  0
   22.1100   23.6400    6.2700 H   0  0  0  0  0  0  0  0  0  0  0  0
   23.9600   21.4600   13.5400 H   0  0  0  0  0  0  0  0  0  0  0  0
   24.2100   23.6100   14.2400 H   0  0  0  0  0  0  0  0  0  0  0  0
   22.8900   22.8200   15.2100 H   0  0  0  0  0  0  0  0  0  0  0  0
   21.1400   26.5200   12.8000 H   0  0  0  0  0  0  0  0  0  0  0  0
   21.3100   27.1800   10.3300 H   0  0  0  0  0  0  0  0  0  0  0  0
   22.2800   25.6200    8.7200 H   0  0  0  0  0  0  0  0  0  0  0  0
   21.1000   22.1300   12.8400 H   0  0  0  0  0  0  0  0  0  0  0  0
   21.8600   20.6200   12.4300 H   0  0  0  0  0  0  0  0  0  0  0  0
   23.2400   19.9400   14.9700 H   0  0  0  0  0  0  0  0  0  0  0  0
   22.1800   18.9300   13.9800 H   0  0  0  0  0  0  0  0  0  0  0  0
   22.4200   17.9900   16.1900 H   0  0  0  0  0  0  0  0  0  0  0  0
   21.9600   19.4300   17.0000 H   0  0  0  0  0  0  0  0  0  0  0  0
   18.4400   19.4700   15.4600 H   0  0  0  0  0  0  0  0  0  0  0  0
   19.6200   20.3900   16.4300 H   0  0  0  0  0  0  0  0  0  0  0  0
   19.3300   21.2700   14.2600 H   0  0  0  0  0  0  0  0  0  0  0  0
   19.7900   19.8200   13.5000 H   0  0  0  0  0  0  0  0  0  0  0  0
  1  4  1  0  0  0  0
  1 33  1  0  0  0  0
  1 34  1  0  0  0  0
  1 35  1  0  0  0  0
  2  4  1  0  0  0  0
  2 21  1  0  0  0  0
  2 22  1  0  0  0  0
  3  9  1  0  0  0  0
  4  7  1  0  0  0  0
  5 28  1  0  0  0  0
  5 29  1  0  0  0  0
  5 32  1  0  0  0  0
  6 23  1  0  0  0  0
  6 24  1  0  0  0  0
  7  9  1  0  0  0  0
  7 20  1  0  0  0  0
  8 30  1  0  0  0  0
  8 31  1  0  0  0  0
  9 10  1  0  0  0  0
 10 11  1  0  0  0  0
 10 19  1  0  0  0  0
 11 12  1  0  0  0  0
 11 16  1  0  0  0  0
 12 13  1  0  0  0  0
 12 36  1  0  0  0  0
 13 14  1  0  0  0  0
 13 37  1  0  0  0  0
 14 15  1  0  0  0  0
 14 38  1  0  0  0  0
 15 16  1  0  0  0  0
 15 39  1  0  0  0  0
 16 17  1  0  0  0  0
 17 18  1  0  0  0  0
 17 40  1  0  0  0  0
 18 19  1  0  0  0  0
 18 41  1  0  0  0  0
 19 42  1  0  0  0  0
 20 21  1  0  0  0  0
 20 27  1  0  0  0  0
 21 24  1  0  0  0  0
 22 23  1  0  0  0  0
 22 28  1  0  0  0  0
 22 43  1  0  0  0  0
 23 44  1  0  0  0  0
 23 45  1  0  0  0  0
 24 25  1  0  0  0  0
 25 26  1  0  0  0  0
 25 46  1  0  0  0  0
 26 27  1  0  0  0  0
 26 47  1  0  0  0  0
 27 48  1  0  0  0  0
 28 49  1  0  0  0  0
 28 50  1  0  0  0  0
 29 30  1  0  0  0  0
 29 51  1  0  0  0  0
 29 52  1  0  0  0  0
 30 53  1  0  0  0  0
 30 54  1  0  0  0  0
 31 32  1  0  0  0  0
 31 55  1  0  0  0  0
 31 56  1  0  0  0  0
 32 57  1  0  0  0  0
 32 58  1  0  0  0  0
M  END
$$$$
WIN_all_conformer
  PyMOL2.3          3D                             0

 58 63  0  0  0  0  0  0  0  0999 V2000
   26.4700   21.2300   11.2700 C   0  0  0  0  0  0  0  0  0  0  0  0
   24.8400   22.4000   12.8400 N   0  0  0  0  0  0  0  0  0  0  0  0
   26.8300   23.5800    9.3300 O   0  0  0  0  0  0  0  0  0  0  0  0
   25.5300   22.3400   11.6300 C   0  0  0  0  0  0  0  0  0  0  0  0
   22.0600   20.8500   13.3100 N   0  0  0  0  0  0  0  0  0  0  0  0
   23.1400   23.1700   14.9900 O   0  0  0  0  0  0  0  0  0  0  0  0
   25.1200   23.3900   10.8700 C   0  0  0  0  0  0  0  0  0  0  0  0
   19.4400   21.8500   12.7300 O   0  0  0  0  0  0  0  0  0  0  0  0
   25.6100   23.6800    9.5000 C   0  0  0  0  0  0  0  0  0  0  0  0
   24.8100   24.4100    8.5100 C   0  0  0  0  0  0  0  0  0  0  0  0
   23.4800   23.9800    8.2400 C   0  0  0  0  0  0  0  0  0  0  0  0
   22.9100   22.8200    8.6900 C   0  0  0  0  0  0  0  0  0  0  0  0
   21.6500   22.4000    8.2300 C   0  0  0  0  0  0  0  0  0  0  0  0
   20.9100   23.2600    7.3800 C   0  0  0  0  0  0  0  0  0  0  0  0
   21.4000   24.4300    6.9500 C   0  0  0  0  0  0  0  0  0  0  0  0
   22.7500   24.7300    7.2600 C   0  0  0  0  0  0  0  0  0  0  0  0
   23.3600   25.8300    6.6000 C   0  0  0  0  0  0  0  0  0  0  0  0
   24.7100   26.1300    6.9000 C   0  0  0  0  0  0  0  0  0  0  0  0
   25.4300   25.3800    7.8000 C   0  0  0  0  0  0  0  0  0  0  0  0
   24.2000   24.2100   11.6200 C   0  0  0  0  0  0  0  0  0  0  0  0
   24.0000   23.5200   12.7600 C   0  0  0  0  0  0  0  0  0  0  0  0
   24.6000   21.4200   13.9300 C   0  0  0  0  0  0  0  0  0  0  0  0
   24.1900   22.1400   15.2100 C   0  0  0  0  0  0  0  0  0  0  0  0
   23.2300   23.9500   13.7800 C   0  0  0  0  0  0  0  0  0  0  0  0
   22.5200   25.1400   13.6900 C   0  0  0  0  0  0  0  0  0  0  0  0
   22.7300   25.9400   12.5700 C   0  0  0  0  0  0  0  0  0  0  0  0
   23.5100   25.4200   11.5000 C   0  0  0  0  0  0  0  0  0  0  0  0
   23.4900   20.3100   13.5600 C   0  0  0  0  0  0  0  0  0  0  0  0
   21.0400   20.9100   14.3700 C   0  0  0  0  0  0  0  0  0  0  0  0
   19.9800   21.9600   14.0500 C   0  0  0  0  0  0  0  0  0  0  0  0
   20.5400   21.9300   11.7600 C   0  0  0  0  0  0  0  0  0  0  0  0
   21.5700   20.8100   11.9000 C   0  0  0  0  0  0  0  0  0  0  0  0
   27.3900   21.7000   10.9200 H   0  0  0  0  0  0  0  0  0  0  0  0
   26.0300   20.7800   10.3700 H   0  0  0  0  0  0  0  0  0  0  0  0
   26.7800   20.6100   12.1100 H   0  0  0  0  0  0  0  0  0  0  0  0
   23.3400   22.0400    9.3200 H   0  0  0  0  0  0  0  0  0  0  0  0
   21.1900   21.4700    8.5400 H   0  0  0  0  0  0  0  0  0  0  0  0
   19.8800   23.0300    7.1100 H   0  0  0  0  0  0  0  0  0  0  0  0
   20.8900   25.1000    6.2600 H   0  0  0  0  0  0  0  0  0  0  0  0
   22.8200   26.4900    5.9200 H   0  0  0  0  0  0  0  0  0  0  0  0
   25.2400   26.9100    6.3700 H   0  0  0  0  0  0  0  0  0  0  0  0
   26.4500   25.6500    8.0300 H   0  0  0  0  0  0  0  0  0  0  0  0
   25.4700   20.8000   14.1500 H   0  0  0  0  0  0  0  0  0  0  0  0
   25.0700   22.6500   15.6300 H   0  0  0  0  0  0  0  0  0  0  0  0
   23.8900   21.5200   16.0500 H   0  0  0  0  0  0  0  0  0  0  0  0
   21.9200   25.4500   14.5400 H   0  0  0  0  0  0  0  0  0  0  0  0
   22.2500   26.8800   12.3400 H   0  0  0  0  0  0  0  0  0  0  0  0
   23.6400   26.0400   10.6200 H   0  0  0  0  0  0  0  0  0  0  0  0
   23.9200   19.8100   12.6800 H   0  0  0  0  0  0  0  0  0  0  0  0
   23.4600   19.6900   14.4600 H   0  0  0  0  0  0  0  0  0  0  0  0
   21.4600   21.1600   15.3500 H   0  0  0  0  0  0  0  0  0  0  0  0
   20.5700   19.9200   14.3700 H   0  0  0  0  0  0  0  0  0  0  0  0
   19.2100   21.8900   14.8300 H   0  0  0  0  0  0  0  0  0  0  0  0
   20.4700   22.9300   14.1600 H   0  0  0  0  0  0  0  0  0  0  0  0
   20.1600   21.9000   10.7300 H   0  0  0  0  0  0  0  0  0  0  0  0
   21.0900   22.8700   11.8800 H   0  0  0  0  0  0  0  0  0  0  0  0
   22.4500   20.8600   11.2600 H   0  0  0  0  0  0  0  0  0  0  0  0
   21.1400   19.8500   11.6000 H   0  0  0  0  0  0  0  0  0  0  0  0
  1  4  1  0  0  0  0
  1 33  1  0  0  0  0
  1 34  1  0  0  0  0
  1 35  1  0  0  0  0
  2  4  1  0  0  0  0
  2 21  1  0  0  0  0
  2 22  1  0  0  0  0
  3  9  1  0  0  0  0
  4  7  1  0  0  0  0
  5 28  1  0  0  0  0
  5 29  1  0  0  0  0
  5 32  1  0  0  0  0
  6 23  1  0  0  0  0
  6 24  1  0  0  0  0
  7  9  1  0  0  0  0
  7 20  1  0  0  0  0
  8 30  1  0  0  0  0
  8 31  1  0  0  0  0
  9 10  1  0  0  0  0
 10 11  1  0  0  0  0
 10 19  1  0  0  0  0
 11 12  1  0  0  0  0
 11 16  1  0  0  0  0
 12 13  1  0  0  0  0
 12 36  1  0  0  0  0
 13 14  1  0  0  0  0
 13 37  1  0  0  0  0
 14 15  1  0  0  0  0
 14 38  1  0  0  0  0
 15 16  1  0  0  0  0
 15 39  1  0  0  0  0
 16 17  1  0  0  0  0
 17 18  1  0  0  0  0
 17 40  1  0  0  0  0
 18 19  1  0  0  0  0
 18 41  1  0  0  0  0
 19 42  1  0  0  0  0
 20 21  1  0  0  0  0
 20 27  1  0  0  0  0
 21 24  1  0  0  0  0
 22 23  1  0  0  0  0
 22 28  1  0  0  0  0
 22 43  1  0  0  0  0
 23 44  1  0  0  0  0
 23 45  1  0  0  0  0
 24 25  1  0  0  0  0
 25 26  1  0  0  0  0
 25 46  1  0  0  0  0
 26 27  1  0  0  0  0
 26 47  1  0  0  0  0
 27 48  1  0  0  0  0
 28 49  1  0  0  0  0
 28 50  1  0  0  0  0
 29 30  1  0  0  0  0
 29 51  1  0  0  0  0
 29 52  1  0  0  0  0
 30 53  1  0  0  0  0
 30 54  1  0  0  0  0
 31 32  1  0  0  0  0
 31 55  1  0  0  0  0
 31 56  1  0  0  0  0
 32 57  1  0  0  0  0
 32 58  1  0  0  0  0
M  END
$$$$
WIN_all_conformer
  PyMOL2.3          3D                             0

 58 63  0  0  0  0  0  0  0  0999 V2000
   24.4900   21.5700   12.1800 C   0  0  0  0  0  0  0  0  0  0  0  0
   24.1400   23.5900   13.7200 N   0  0  0  0  0  0  0  0  0  0  0  0
   23.2000   22.6900    9.6800 O   0  0  0  0  0  0  0  0  0  0  0  0
   24.0800   22.9900   12.4700 C   0  0  0  0  0  0  0  0  0  0  0  0
   22.2400   21.4600   14.9100 N   0  0  0  0  0  0  0  0  0  0  0  0
   24.2000   25.4700   15.8000 O   0  0  0  0  0  0  0  0  0  0  0  0
   23.8100   23.9400   11.5100 C   0  0  0  0  0  0  0  0  0  0  0  0
   20.9300   19.0900   13.8800 O   0  0  0  0  0  0  0  0  0  0  0  0
   23.5500   23.7600   10.1000 C   0  0  0  0  0  0  0  0  0  0  0  0
   24.0300   24.8600    9.1900 C   0  0  0  0  0  0  0  0  0  0  0  0
   23.2900   25.2200    8.0600 C   0  0  0  0  0  0  0  0  0  0  0  0
   22.0300   24.6600    7.6900 C   0  0  0  0  0  0  0  0  0  0  0  0
   21.2300   25.0700    6.5600 C   0  0  0  0  0  0  0  0  0  0  0  0
   21.6900   26.1300    5.7800 C   0  0  0  0  0  0  0  0  0  0  0  0
   23.0000   26.6300    5.9900 C   0  0  0  0  0  0  0  0  0  0  0  0
   23.7700   26.1800    7.1600 C   0  0  0  0  0  0  0  0  0  0  0  0
   25.0400   26.7400    7.3900 C   0  0  0  0  0  0  0  0  0  0  0  0
   25.8200   26.3400    8.4900 C   0  0  0  0  0  0  0  0  0  0  0  0
   25.3200   25.4400    9.3800 C   0  0  0  0  0  0  0  0  0  0  0  0
   23.6800   25.2200   12.2100 C   0  0  0  0  0  0  0  0  0  0  0  0
   23.9300   24.9200   13.5200 C   0  0  0  0  0  0  0  0  0  0  0  0
   24.1500   23.0800   15.1500 C   0  0  0  0  0  0  0  0  0  0  0  0
   24.8000   24.1500   15.9900 C   0  0  0  0  0  0  0  0  0  0  0  0
   23.8900   25.8200   14.5000 C   0  0  0  0  0  0  0  0  0  0  0  0
   23.5700   27.1300   14.2800 C   0  0  0  0  0  0  0  0  0  0  0  0
   23.3600   27.5700   12.9600 C   0  0  0  0  0  0  0  0  0  0  0  0
   23.3200   26.5800   11.9100 C   0  0  0  0  0  0  0  0  0  0  0  0
   22.7600   22.6800   15.6000 C   0  0  0  0  0  0  0  0  0  0  0  0
   22.4400   20.1500   15.5000 C   0  0  0  0  0  0  0  0  0  0  0  0
   22.2500   19.0500   14.4100 C   0  0  0  0  0  0  0  0  0  0  0  0
   20.8500   20.3600   13.1700 C   0  0  0  0  0  0  0  0  0  0  0  0
   21.0400   21.5900   14.1000 C   0  0  0  0  0  0  0  0  0  0  0  0
   23.6800   20.8800   11.9400 H   0  0  0  0  0  0  0  0  0  0  0  0
   24.9600   21.2000   13.1100 H   0  0  0  0  0  0  0  0  0  0  0  0
   25.2200   21.5500   11.3600 H   0  0  0  0  0  0  0  0  0  0  0  0
   21.7100   23.8700    8.3700 H   0  0  0  0  0  0  0  0  0  0  0  0
   20.2000   24.7900    6.3400 H   0  0  0  0  0  0  0  0  0  0  0  0
   21.0800   26.4400    4.9400 H   0  0  0  0  0  0  0  0  0  0  0  0
   23.4000   27.3000    5.2500 H   0  0  0  0  0  0  0  0  0  0  0  0
   25.5600   27.3700    6.6700 H   0  0  0  0  0  0  0  0  0  0  0  0
   26.8400   26.7100    8.5100 H   0  0  0  0  0  0  0  0  0  0  0  0
   25.8400   25.2700   10.3200 H   0  0  0  0  0  0  0  0  0  0  0  0
   24.8300   22.2300   15.1400 H   0  0  0  0  0  0  0  0  0  0  0  0
   25.8600   24.2100   15.7400 H   0  0  0  0  0  0  0  0  0  0  0  0
   24.8400   23.9000   17.0600 H   0  0  0  0  0  0  0  0  0  0  0  0
   23.5200   27.8300   15.1100 H   0  0  0  0  0  0  0  0  0  0  0  0
   23.0800   28.6000   12.7500 H   0  0  0  0  0  0  0  0  0  0  0  0
   22.9700   26.8700   10.9300 H   0  0  0  0  0  0  0  0  0  0  0  0
   22.7900   22.5000   16.6800 H   0  0  0  0  0  0  0  0  0  0  0  0
   22.0700   23.5100   15.4200 H   0  0  0  0  0  0  0  0  0  0  0  0
   21.6100   19.9600   16.2000 H   0  0  0  0  0  0  0  0  0  0  0  0
   23.3200   20.0400   16.1400 H   0  0  0  0  0  0  0  0  0  0  0  0
   22.9300   19.3200   13.6000 H   0  0  0  0  0  0  0  0  0  0  0  0
   22.5000   18.0600   14.8000 H   0  0  0  0  0  0  0  0  0  0  0  0
   21.4300   20.3500   12.2400 H   0  0  0  0  0  0  0  0  0  0  0  0
   19.8200   20.4100   12.7900 H   0  0  0  0  0  0  0  0  0  0  0  0
   20.1700   21.7400   14.7600 H   0  0  0  0  0  0  0  0  0  0  0  0
   21.1500   22.4800   13.4800 H   0  0  0  0  0  0  0  0  0  0  0  0
  1  4  1  0  0  0  0
  1 33  1  0  0  0  0
  1 34  1  0  0  0  0
  1 35  1  0  0  0  0
  2  4  1  0  0  0  0
  2 21  1  0  0  0  0
  2 22  1  0  0  0  0
  3  9  1  0  0  0  0
  4  7  1  0  0  0  0
  5 28  1  0  0  0  0
  5 29  1  0  0  0  0
  5 32  1  0  0  0  0
  6 23  1  0  0  0  0
  6 24  1  0  0  0  0
  7  9  1  0  0  0  0
  7 20  1  0  0  0  0
  8 30  1  0  0  0  0
  8 31  1  0  0  0  0
  9 10  1  0  0  0  0
 10 11  1  0  0  0  0
 10 19  1  0  0  0  0
 11 12  1  0  0  0  0
 11 16  1  0  0  0  0
 12 13  1  0  0  0  0
 12 36  1  0  0  0  0
 13 14  1  0  0  0  0
 13 37  1  0  0  0  0
 14 15  1  0  0  0  0
 14 38  1  0  0  0  0
 15 16  1  0  0  0  0
 15 39  1  0  0  0  0
 16 17  1  0  0  0  0
 17 18  1  0  0  0  0
 17 40  1  0  0  0  0
 18 19  1  0  0  0  0
 18 41  1  0  0  0  0
 19 42  1  0  0  0  0
 20 21  1  0  0  0  0
 20 27  1  0  0  0  0
 21 24  1  0  0  0  0
 22 23  1  0  0  0  0
 22 28  1  0  0  0  0
 22 43  1  0  0  0  0
 23 44  1  0  0  0  0
 23 45  1  0  0  0  0
 24 25  1  0  0  0  0
 25 26  1  0  0  0  0
 25 46  1  0  0  0  0
 26 27  1  0  0  0  0
 26 47  1  0  0  0  0
 27 48  1  0  0  0  0
 28 49  1  0  0  0  0
 28 50  1  0  0  0  0
 29 30  1  0  0  0  0
 29 51  1  0  0  0  0
 29 52  1  0  0  0  0
 30 53  1  0  0  0  0
 30 54  1  0  0  0  0
 31 32  1  0  0  0  0
 31 55  1  0  0  0  0
 31 56  1  0  0  0  0
 32 57  1  0  0  0  0
 32 58  1  0  0  0  0
M  END
$$$$
